powerflow/Codes/PF_Formulation/resultados_csv/18/test_system/barras.csv
caso,script,bus_id,vm_pu,va_rad,pd_pu,qd_pu,pg_pu,qg_pu,bus_type
test_system.pwf,18,23,0.9974649156643752,0.0,0.0,0.0,0.3484262491057591,-0.061759632615742216,3
test_system.pwf,18,24,0.9945822983179332,-0.2291165268987317,0.34600000000000003,0.069,0.0,0.0,1
test_system.pwf,18,26,1.008605529639582,-0.12562707084282815,0.0,0.0,0.0,0.0,1
test_system.pwf,18,29,1.0015726748200706,-0.021799432322476855,0.0,0.0,0.0,0.0,1
